
##########################################################################
#               Crystallographic Information Format file
#               Produced by PyCifRW module
#
#  This is a CIF file.  CIF has been adopted by the International
#  Union of Crystallography as the standard for data archiving and
#  transmission.
#
#  For information on this file format, follow the CIF links at
#  http://www.iucr.org
##########################################################################

data_0

loop_
  _atom_site_label
  _atom_site_fract_x
  _atom_site_fract_y
  _atom_site_fract_z
  _atom_site_type_symbol
         Ag1       0.5       0.27576127000000533           0.47052982000000515           Ag       
         Ag2       0.5       0.7242387299999946  0.47052982000000515           Ag       
         Ag3       0.0       0.5       0.4248968700000099  Ag        
         Ag4       0.22133489999999378           0.0036979599999999676         0.3667798399999901 Ag       
         Ag5       0.0       0.5       0.32901014999998485           Ag        
         Ag6       0.7786651000000061  0.99630204          0.3667798399999901  Ag       
         Ag7       0.0       0.5       0.6120494999999854  Ag        
         Ag8       0.22133489999999378           0.99630204          0.5742798100000127 Ag       
         Ag9       0.0       0.5       0.5161627700000004  Ag        
         Ag10      0.7786651000000061  0.0036979599999999676         0.5742798100000127 Ag       
         P1        0.5       0.5       0.37105116000000665           P         
         P2        0.0       0.0       0.47052982000000515           P         
         P3        0.5       0.5       0.5700084899999962  P         
         O1        0.8540064700000015  0.8523314700000014  0.44027125000000406           O        
         O2        0.38380034000000474           0.6742731500000076  0.40066845999998607          O        
         O3        0.674773009999999   0.6288669400000061  0.34302034000000475           O        
         O4        0.6161996599999953  0.3257268499999923  0.40066845999998607           O        
         O5        0.32522699000000105           0.37113305999999396           0.34302034000000475          O        
         O6        0.12507119000000036           0.7903284199999999  0.32031038999999967          O        
         O7        0.8749288099999997  0.20967158000000008           0.32031038999999967          O        
         O8        0.14599353000000023           0.14766853000000024           0.44027125000000406          O        
         O9        0.8749288099999997  0.7903284199999999  0.6207492500000107  O        
         O10       0.32522699000000105           0.6288669400000061  0.5980393000000056 O        
         O11       0.6161996599999953  0.6742731500000076  0.540391189999984   O        
         O12       0.674773009999999   0.37113305999999396           0.5980393000000056 O        
         O13       0.38380034000000474           0.3257268499999923  0.540391189999984  O        
         O14       0.14599353000000023           0.8523314700000014  0.5007883900000063 O        
         O15       0.8540064700000015  0.14766853000000024           0.5007883900000063 O        
         O16       0.12507119000000036           0.20967158000000008           0.6207492500000107 O
_cell_angle_alpha                       90.0
_cell_angle_beta                        90.0
_cell_angle_gamma                       90.0
_cell_length_a                          6.12112462
_cell_length_b                          6.12112462
_cell_length_c                          30.6056231
loop_
  _symmetry_equiv_pos_as_xyz
         'x, y, z' 
_symmetry_int_tables_number             1
_symmetry_space_group_name_H-M          'P 1'
