
#======================================================================
# CRYSTAL DATA
#----------------------------------------------------------------------
data_VESTA_phase_1

_chemical_name_common                  'Ag6 P2 O8'
_cell_length_a                         6.097168
_cell_length_b                         6.097168
_cell_length_c                         6.097168
_cell_angle_alpha                      90.000000
_cell_angle_beta                       90.000000
_cell_angle_gamma                      90.000000
_cell_volume                           226.665060
_space_group_name_H-M_alt              'P 1'
_space_group_IT_number                 1

loop_
_space_group_symop_operation_xyz
   'x, y, z'

loop_
   _atom_site_label
   _atom_site_occupancy
   _atom_site_fract_x
   _atom_site_fract_y
   _atom_site_fract_z
   _atom_site_adp_type
   _atom_site_U_iso_or_equiv
   _atom_site_type_symbol
   Ag1        1.0     -0.000000     0.500000     0.250000    Uiso  ? Ag
   Ag2        1.0     -0.000000     0.500000     0.750000    Uiso  ? Ag
   Ag3        1.0     0.750000     -0.000000     0.500000    Uiso  ? Ag
   Ag4        1.0     0.500000     0.250000     0.000000    Uiso  ? Ag
   Ag5        1.0     0.250000     -0.000000     0.500000    Uiso  ? Ag
   Ag6        1.0     0.500000     0.750000     0.000000    Uiso  ? Ag
   P1         1.0     0.500000     0.500000     0.500000    Uiso  ? P
   P2         1.0     -0.000000     -0.000000     0.000000    Uiso  ? P
   O1         1.0     0.851563     0.851563     0.851563    Uiso  ? O
   O2         1.0     0.648437     0.351563     0.648437    Uiso  ? O
   O3         1.0     0.351563     0.648437     0.648437    Uiso  ? O
   O4         1.0     0.648437     0.648437     0.351563    Uiso  ? O
   O5         1.0     0.351563     0.351563     0.351563    Uiso  ? O
   O6         1.0     0.148437     0.148437     0.851563    Uiso  ? O
   O7         1.0     0.148437     0.851563     0.148437    Uiso  ? O
   O8         1.0     0.851563     0.148437     0.148437    Uiso  ? O
