
#======================================================================
# CRYSTAL DATA
#----------------------------------------------------------------------
data_VESTA_phase_1

_chemical_name_common                  'Ag O '
_cell_length_a                         4.753991
_cell_length_b                         4.753991
_cell_length_c                         38.031925
_cell_angle_alpha                      90.000000
_cell_angle_beta                       90.000000
_cell_angle_gamma                      90.000000
_cell_volume                           859.537753
_space_group_name_H-M_alt              'P 1'
_space_group_IT_number                 1

loop_
_space_group_symop_operation_xyz
   'x, y, z'

loop_
   _atom_site_label
   _atom_site_occupancy
   _atom_site_fract_x
   _atom_site_fract_y
   _atom_site_fract_z
   _atom_site_adp_type
   _atom_site_U_iso_or_equiv
   _atom_site_type_symbol
   Ag1        1.0     0.250000     0.750000     0.279092    Uiso  ? Ag
   Ag2        1.0     0.250000     0.250000     0.341592    Uiso  ? Ag
   Ag3        1.0     0.750000     0.250000     0.279092    Uiso  ? Ag
   Ag4        1.0     0.750000     0.750000     0.341592    Uiso  ? Ag
   Ag5        1.0     0.250000     0.750000     0.404092    Uiso  ? Ag
   Ag6        1.0     0.250000     0.250000     0.466592    Uiso  ? Ag
   Ag7        1.0     0.750000     0.250000     0.404092    Uiso  ? Ag
   Ag8        1.0     0.750000     0.750000     0.466592    Uiso  ? Ag
   Ag9        1.0     0.250000     0.750000     0.529092    Uiso  ? Ag
   Ag10       1.0     0.250000     0.250000     0.591592    Uiso  ? Ag
   Ag11       1.0     0.750000     0.250000     0.529092    Uiso  ? Ag
   Ag12       1.0     0.750000     0.750000     0.591592    Uiso  ? Ag
   Ag13       1.0     0.250000     0.750000     0.654092    Uiso  ? Ag
   Ag14       1.0     0.250000     0.250000     0.716592    Uiso  ? Ag
   Ag15       1.0     0.750000     0.250000     0.654092    Uiso  ? Ag
   Ag16       1.0     0.750000     0.750000     0.716592    Uiso  ? Ag
   O1         1.0     0.000000     0.000000     0.372842    Uiso  ? O
   O2         1.0     0.500000     0.500000     0.310342    Uiso  ? O
   O3         1.0     0.000000     0.000000     0.497842    Uiso  ? O
   O4         1.0     0.500000     0.500000     0.435342    Uiso  ? O
   O5         1.0     0.000000     0.000000     0.622842    Uiso  ? O
   O6         1.0     0.500000     0.500000     0.560342    Uiso  ? O
   O7         1.0     0.500000     0.500000     0.685342    Uiso  ? O
