
#======================================================================
# CRYSTAL DATA
#----------------------------------------------------------------------
data_VESTA_phase_1

_chemical_name_common                  'Ag O '
_cell_length_a                         4.753991
_cell_length_b                         6.723158
_cell_length_c                         33.615791
_cell_angle_alpha                      90.000000
_cell_angle_beta                       90.000000
_cell_angle_gamma                      90.000000
_cell_volume                           1074.422274
_space_group_name_H-M_alt              'P 1'
_space_group_IT_number                 1

loop_
_space_group_symop_operation_xyz
   'x, y, z'

loop_
   _atom_site_label
   _atom_site_occupancy
   _atom_site_fract_x
   _atom_site_fract_y
   _atom_site_fract_z
   _atom_site_adp_type
   _atom_site_U_iso_or_equiv
   _atom_site_type_symbol
   Ag1        1.0     0.750000     0.375000     0.323274    Uiso  ? Ag
   Ag2        1.0     0.750000     0.875000     0.323274    Uiso  ? Ag
   Ag3        1.0     0.250000     0.125000     0.373274    Uiso  ? Ag
   Ag4        1.0     0.750000     0.875000     0.423274    Uiso  ? Ag
   Ag5        1.0     0.750000     0.375000     0.423274    Uiso  ? Ag
   Ag6        1.0     0.250000     0.625000     0.373274    Uiso  ? Ag
   Ag7        1.0     0.250000     0.625000     0.473274    Uiso  ? Ag
   Ag8        1.0     0.750000     0.375000     0.523274    Uiso  ? Ag
   Ag9        1.0     0.750000     0.875000     0.523274    Uiso  ? Ag
   Ag10       1.0     0.250000     0.125000     0.473274    Uiso  ? Ag
   Ag11       1.0     0.250000     0.125000     0.573274    Uiso  ? Ag
   Ag12       1.0     0.750000     0.875000     0.623274    Uiso  ? Ag
   Ag13       1.0     0.750000     0.375000     0.623274    Uiso  ? Ag
   Ag14       1.0     0.250000     0.625000     0.573274    Uiso  ? Ag
   Ag15       1.0     0.250000     0.625000     0.673274    Uiso  ? Ag
   Ag16       1.0     0.750000     0.375000     0.723274    Uiso  ? Ag
   Ag17       1.0     0.750000     0.875000     0.723274    Uiso  ? Ag
   Ag18       1.0     0.250000     0.125000     0.673274    Uiso  ? Ag
   O1         1.0     0.000000     0.625000     0.323274    Uiso  ? O
   O2         1.0     0.500000     0.125000     0.323274    Uiso  ? O
   O3         1.0     0.000000     0.125000     0.423274    Uiso  ? O
   O4         1.0     0.500000     0.625000     0.423274    Uiso  ? O
   O5         1.0     0.000000     0.625000     0.523274    Uiso  ? O
   O6         1.0     0.500000     0.125000     0.523274    Uiso  ? O
   O7         1.0     0.000000     0.125000     0.623274    Uiso  ? O
   O8         1.0     0.500000     0.625000     0.623274    Uiso  ? O
   O9         1.0     0.000000     0.625000     0.723274    Uiso  ? O
   O10        1.0     0.500000     0.125000     0.723274    Uiso  ? O
