
#======================================================================
# CRYSTAL DATA
#----------------------------------------------------------------------
data_VESTA_phase_1

_chemical_name_common                  '"La7 Ni8 O21"'
_cell_length_a                         5.402305
_cell_length_b                         5.402305
_cell_length_c                         35.879906
_cell_angle_alpha                      90.000000
_cell_angle_beta                       90.000000
_cell_angle_gamma                      61.349564
_cell_volume                           918.939405
_space_group_name_H-M_alt              'P 1'
_space_group_IT_number                 1

loop_
_space_group_symop_operation_xyz
   'x, y, z'

loop_
   _atom_site_label
   _atom_site_occupancy
   _atom_site_fract_x
   _atom_site_fract_y
   _atom_site_fract_z
   _atom_site_adp_type
   _atom_site_U_iso_or_equiv
   _atom_site_type_symbol
   La1        1.0     0.360372     0.301576     0.040063    Uiso  ? La
   La2        1.0     0.035577     0.930181     0.102254    Uiso  ? La
   La3        1.0     0.701204     0.592093     0.161545    Uiso  ? La
   La4        1.0     0.371136     0.252626     0.223782    Uiso  ? La
   La5        1.0     0.031670     0.922559     0.286019    Uiso  ? La
   La6        1.0     0.693582     0.588185     0.345310    Uiso  ? La
   La7        1.0     0.322186     0.263390     0.407501    Uiso  ? La
   Ni1        1.0     0.701487     0.613972     0.063787    Uiso  ? Ni
   Ni2        1.0     0.009042     0.006341     0.015471    Uiso  ? Ni
   Ni3        1.0     0.037167     0.921856     0.192843    Uiso  ? Ni
   Ni4        1.0     0.370643     0.256606     0.129309    Uiso  ? Ni
   Ni5        1.0     0.367156     0.253119     0.318255    Uiso  ? Ni
   Ni6        1.0     0.701907     0.586595     0.254721    Uiso  ? Ni
   Ni7        1.0     0.617422     0.614720     0.432092    Uiso  ? Ni
   Ni8        1.0     0.009791     0.922275     0.383777    Uiso  ? Ni
   O1         1.0     0.881934     0.371914     0.019178    Uiso  ? O
   O2         1.0     0.331666     0.763446     0.040542    Uiso  ? O
   O3         1.0     0.790756     0.881607     0.039283    Uiso  ? O
   O4         1.0     0.592352     0.364837     0.095243    Uiso  ? O
   O5         1.0     0.199713     0.620122     0.154808    Uiso  ? O
   O6         1.0     0.672834     0.098731     0.166676    Uiso  ? O
   O7         1.0     0.143458     0.152723     0.161283    Uiso  ? O
   O8         1.0     0.063711     0.418657     0.091700    Uiso  ? O
   O9         1.0     0.532713     0.886862     0.105336    Uiso  ? O
   O10        1.0     0.929162     0.694601     0.223782    Uiso  ? O
   O11        1.0     0.525031     0.950928     0.280887    Uiso  ? O
   O12        1.0     0.003640     0.424050     0.292755    Uiso  ? O
   O13        1.0     0.471040     0.480305     0.286281    Uiso  ? O
   O14        1.0     0.406878     0.745626     0.217270    Uiso  ? O
   O15        1.0     0.878137     0.216884     0.230293    Uiso  ? O
   O16        1.0     0.258925     0.031410     0.352320    Uiso  ? O
   O17        1.0     0.860316     0.292097     0.407021    Uiso  ? O
   O18        1.0     0.251848     0.741828     0.428385    Uiso  ? O
   O19        1.0     0.742155     0.833007     0.408281    Uiso  ? O
   O20        1.0     0.736900     0.091050     0.342228    Uiso  ? O
   O21        1.0     0.205106     0.560051     0.355864    Uiso  ? O
