# PdIn - B2 (CsCl-type) structure
# Space group: Pm-3m (221)
# Lattice parameter: ~3.25 Angstrom

data_PdIn
_symmetry_space_group_name_H-M   'P m -3 m'
_symmetry_Int_Tables_number      221
_cell_length_a                   3.2500
_cell_length_b                   3.2500
_cell_length_c                   3.2500
_cell_angle_alpha                90.0000
_cell_angle_beta                 90.0000
_cell_angle_gamma                90.0000

loop_
_atom_site_label
_atom_site_type_symbol
_atom_site_fract_x
_atom_site_fract_y
_atom_site_fract_z
_atom_site_occupancy
Pd1  Pd  0.00000  0.00000  0.00000  1.0
In1  In  0.50000  0.50000  0.50000  1.0
