
##########################################################################
#               Crystallographic Information Format file
#               Produced by PyCifRW module
#
#  This is a CIF file.  CIF has been adopted by the International
#  Union of Crystallography as the standard for data archiving and
#  transmission.
#
#  For information on this file format, follow the CIF links at
#  http://www.iucr.org
##########################################################################

data_0

loop_
  _atom_site_label
  _atom_site_fract_x
  _atom_site_fract_y
  _atom_site_fract_z
  _atom_site_type_symbol
         Ag1       0.2617408400000034  0.2617408400000034  0.4596212500000074  Ag       
         Ag2       0.7382591599999967  0.7382591599999967  0.4596212500000074  Ag       
         Ag3       0.25      0.75      0.5465479199999869  Ag        
         Ag4       0.2382591599999966  0.2382591599999966  0.6334745999999837  Ag       
         Ag5       0.75      0.25      0.5465479199999869  Ag        
         Ag6       0.7617408400000034  0.7617408400000034  0.6334745999999837  Ag       
         O1        0.0       0.0       0.49885031000000735           O         
         O2        0.5       0.5       0.41776909000001283           O         
         O3        0.0       0.0       0.6753267500000004  O         
         O4        0.5       0.5       0.5942455300000059  O 
_cell_angle_alpha                       90.0
_cell_angle_beta                        90.0
_cell_angle_gamma                       90.0
_cell_length_a                          5.05771117
_cell_length_b                          5.05771117
_cell_length_c                          25.28855585
loop_
  _symmetry_equiv_pos_as_xyz
         'x, y, z' 
_symmetry_int_tables_number             1
_symmetry_space_group_name_H-M          'P 1'
