
#======================================================================
# CRYSTAL DATA
#----------------------------------------------------------------------
data_VESTA_phase_1

_chemical_name_common                  'Ag  P  O '
_cell_length_a                         6.097168
_cell_length_b                         6.097168
_cell_length_c                         36.583012
_cell_angle_alpha                      90.000000
_cell_angle_beta                       90.000000
_cell_angle_gamma                      90.000000
_cell_volume                           1359.990397
_space_group_name_H-M_alt              'P 1'
_space_group_IT_number                 1

loop_
_space_group_symop_operation_xyz
   'x, y, z'

loop_
   _atom_site_label
   _atom_site_occupancy
   _atom_site_fract_x
   _atom_site_fract_y
   _atom_site_fract_z
   _atom_site_adp_type
   _atom_site_U_iso_or_equiv
   _atom_site_type_symbol
   Ag1        1.0     0.500000     0.250000     0.401042    Uiso  ? Ag
   Ag2        1.0     0.500000     0.750000     0.401042    Uiso  ? Ag
   Ag3        1.0     0.000000     0.500000     0.359375    Uiso  ? Ag
   Ag4        1.0     0.250000     0.000000     0.317708    Uiso  ? Ag
   Ag5        1.0     0.000000     0.500000     0.276042    Uiso  ? Ag
   Ag6        1.0     0.750000     0.000000     0.317708    Uiso  ? Ag
   Ag7        1.0     0.500000     0.250000     0.567708    Uiso  ? Ag
   Ag8        1.0     0.500000     0.750000     0.567708    Uiso  ? Ag
   Ag9        1.0     0.000000     0.500000     0.526042    Uiso  ? Ag
   Ag10       1.0     0.250000     0.000000     0.484375    Uiso  ? Ag
   Ag11       1.0     0.000000     0.500000     0.442708    Uiso  ? Ag
   Ag12       1.0     0.750000     0.000000     0.484375    Uiso  ? Ag
   Ag13       1.0     0.000000     0.500000     0.692708    Uiso  ? Ag
   Ag14       1.0     0.250000     0.000000     0.651042    Uiso  ? Ag
   Ag15       1.0     0.000000     0.500000     0.609375    Uiso  ? Ag
   Ag16       1.0     0.750000     0.000000     0.651042    Uiso  ? Ag
   P1         1.0     0.500000     0.500000     0.317708    Uiso  ? P
   P2         1.0     0.000000     0.000000     0.401042    Uiso  ? P
   P3         1.0     0.500000     0.500000     0.484375    Uiso  ? P
   P4         1.0     0.000000     0.000000     0.567708    Uiso  ? P
   P5         1.0     0.500000     0.500000     0.651042    Uiso  ? P
   O1         1.0     0.851563     0.851563     0.376302    Uiso  ? O
   O2         1.0     0.351563     0.648437     0.342448    Uiso  ? O
   O3         1.0     0.648437     0.648437     0.292969    Uiso  ? O
   O4         1.0     0.648437     0.351563     0.342448    Uiso  ? O
   O5         1.0     0.351563     0.351563     0.292969    Uiso  ? O
   O6         1.0     0.148437     0.851563     0.259115    Uiso  ? O
   O7         1.0     0.851563     0.148437     0.259115    Uiso  ? O
   O8         1.0     0.148437     0.148437     0.376302    Uiso  ? O
   O9         1.0     0.851563     0.851563     0.542969    Uiso  ? O
   O10        1.0     0.351563     0.648437     0.509115    Uiso  ? O
   O11        1.0     0.648437     0.648437     0.459635    Uiso  ? O
   O12        1.0     0.648437     0.351563     0.509115    Uiso  ? O
   O13        1.0     0.351563     0.351563     0.459635    Uiso  ? O
   O14        1.0     0.148437     0.851563     0.425781    Uiso  ? O
   O15        1.0     0.851563     0.148437     0.425781    Uiso  ? O
   O16        1.0     0.148437     0.148437     0.542969    Uiso  ? O
   O17        1.0     0.851563     0.851563     0.709635    Uiso  ? O
   O18        1.0     0.351563     0.648437     0.675781    Uiso  ? O
   O19        1.0     0.648437     0.648437     0.626302    Uiso  ? O
   O20        1.0     0.648437     0.351563     0.675781    Uiso  ? O
   O21        1.0     0.351563     0.351563     0.626302    Uiso  ? O
   O22        1.0     0.148437     0.851563     0.592448    Uiso  ? O
   O23        1.0     0.851563     0.148437     0.592448    Uiso  ? O
   O24        1.0     0.148437     0.148437     0.709635    Uiso  ? O
