
#======================================================================
# CRYSTAL DATA
#----------------------------------------------------------------------
data_VESTA_phase_1

_chemical_name_common                  '"La8 Fe7 O22"'
_cell_length_a                         5.453912
_cell_length_b                         5.453912
_cell_length_c                         36.048920
_cell_angle_alpha                      90.000000
_cell_angle_beta                       90.000000
_cell_angle_gamma                      60.953732
_cell_volume                           937.417689
_space_group_name_H-M_alt              'P 1'
_space_group_IT_number                 1

loop_
_space_group_symop_operation_xyz
   'x, y, z'

loop_
   _atom_site_label
   _atom_site_occupancy
   _atom_site_fract_x
   _atom_site_fract_y
   _atom_site_fract_z
   _atom_site_adp_type
   _atom_site_U_iso_or_equiv
   _atom_site_type_symbol
   La1        1.0     0.999997     0.999995     0.012567    Uiso  ? La
   La2        1.0     0.649510     0.646487     0.069758    Uiso  ? La
   La3        1.0     0.325129     0.288050     0.136588    Uiso  ? La
   La4        1.0     0.985774     0.951622     0.197743    Uiso  ? La
   La5        1.0     0.645601     0.623146     0.259640    Uiso  ? La
   La6        1.0     0.306246     0.286718     0.320795    Uiso  ? La
   La7        1.0     0.981866     0.928281     0.387625    Uiso  ? La
   La8        1.0     0.631378     0.574773     0.444816    Uiso  ? La
   Fe1        1.0     0.342364     0.294944     0.038008    Uiso  ? Fe
   Fe2        1.0     0.987176     0.960081     0.104555    Uiso  ? Fe
   Fe3        1.0     0.657103     0.617680     0.165454    Uiso  ? Fe
   Fe4        1.0     0.315688     0.287384     0.228692    Uiso  ? Fe
   Fe5        1.0     0.974272     0.957088     0.291929    Uiso  ? Fe
   Fe6        1.0     0.644199     0.614687     0.352828    Uiso  ? Fe
   Fe7        1.0     0.289011     0.279824     0.419375    Uiso  ? Fe
   O1         1.0     0.371356     0.762264     0.125296    Uiso  ? O
   O2         1.0     0.083147     0.192491     0.065879    Uiso  ? O
   O3         1.0     0.476686     0.965752     0.012668    Uiso  ? O
   O4         1.0     0.580880     0.404496     0.014126    Uiso  ? O
   O5         1.0     0.116935     0.663450     0.057806    Uiso  ? O
   O6         1.0     0.606734     0.125392     0.082429    Uiso  ? O
   O7         1.0     0.694823     0.099773     0.252732    Uiso  ? O
   O8         1.0     0.428803     0.507208     0.194766    Uiso  ? O
   O9         1.0     0.849770     0.258290     0.142505    Uiso  ? O
   O10        1.0     0.887355     0.728685     0.137631    Uiso  ? O
   O11        1.0     0.463319     0.978899     0.190092    Uiso  ? O
   O12        1.0     0.936552     0.474995     0.204651    Uiso  ? O
   O13        1.0     0.024641     0.449376     0.374954    Uiso  ? O
   O14        1.0     0.744020     0.846083     0.319752    Uiso  ? O
   O15        1.0     0.168056     0.595869     0.267291    Uiso  ? O
   O16        1.0     0.202572     0.067560     0.262617    Uiso  ? O
   O17        1.0     0.781605     0.316478     0.314878    Uiso  ? O
   O18        1.0     0.260019     0.812504     0.332087    Uiso  ? O
   O19        1.0     0.050495     0.170272     0.443257    Uiso  ? O
   O20        1.0     0.514440     0.911318     0.399577    Uiso  ? O
   O21        1.0     0.548229     0.382277     0.391504    Uiso  ? O
   O22        1.0     0.154689     0.609016     0.444715    Uiso  ? O
