
#======================================================================
# CRYSTAL DATA
#----------------------------------------------------------------------
data_VESTA_phase_1

_chemical_name_common                  '"La8 Mn7 O22"'
_cell_length_a                         5.527353
_cell_length_b                         5.527353
_cell_length_c                         36.497734
_cell_angle_alpha                      90.000000
_cell_angle_beta                       90.000000
_cell_angle_gamma                      60.871803
_cell_volume                           974.046033
_space_group_name_H-M_alt              'P 1'
_space_group_IT_number                 1

loop_
_space_group_symop_operation_xyz
   'x, y, z'

loop_
   _atom_site_label
   _atom_site_occupancy
   _atom_site_fract_x
   _atom_site_fract_y
   _atom_site_fract_z
   _atom_site_adp_type
   _atom_site_U_iso_or_equiv
   _atom_site_type_symbol
   La1        1.0     0.660704     0.641239     0.068064    Uiso  ? La
   La2        1.0     0.006843     0.999995     0.011889    Uiso  ? La
   La3        1.0     0.962750     0.984188     0.196707    Uiso  ? La
   La4        1.0     0.299439     0.316162     0.136383    Uiso  ? La
   La5        1.0     0.297630     0.308910     0.321150    Uiso  ? La
   La6        1.0     0.634320     0.640884     0.260825    Uiso  ? La
   La7        1.0     0.590226     0.625077     0.445643    Uiso  ? La
   La8        1.0     0.936366     0.983833     0.389468    Uiso  ? La
   Mn1        1.0     0.306707     0.336730     0.039041    Uiso  ? Mn
   Mn2        1.0     0.970441     0.984174     0.102994    Uiso  ? Mn
   Mn3        1.0     0.629755     0.652065     0.165370    Uiso  ? Mn
   Mn4        1.0     0.298535     0.312536     0.228766    Uiso  ? Mn
   Mn5        1.0     0.967315     0.973007     0.292162    Uiso  ? Mn
   Mn6        1.0     0.626629     0.640898     0.354539    Uiso  ? Mn
   Mn7        1.0     0.290363     0.288343     0.418492    Uiso  ? Mn
   O1         1.0     0.973627     0.453184     0.013239    Uiso  ? O
   O2         1.0     0.220007     0.069656     0.064314    Uiso  ? O
   O3         1.0     0.777688     0.369552     0.122452    Uiso  ? O
   O4         1.0     0.686793     0.105252     0.057254    Uiso  ? O
   O5         1.0     0.142543     0.599390     0.082600    Uiso  ? O
   O6         1.0     0.400838     0.587397     0.015234    Uiso  ? O
   O7         1.0     0.261796     0.860997     0.142608    Uiso  ? O
   O8         1.0     0.517793     0.411714     0.192849    Uiso  ? O
   O9         1.0     0.113649     0.693493     0.250111    Uiso  ? O
   O10        1.0     0.997703     0.442384     0.189638    Uiso  ? O
   O11        1.0     0.483421     0.931579     0.207422    Uiso  ? O
   O12        1.0     0.740307     0.892122     0.138475    Uiso  ? O
   O13        1.0     0.599366     0.182688     0.267895    Uiso  ? O
   O14        1.0     0.856762     0.732951     0.319058    Uiso  ? O
   O15        1.0     0.454527     0.025682     0.374932    Uiso  ? O
   O16        1.0     0.335273     0.764075     0.314924    Uiso  ? O
   O17        1.0     0.819382     0.255520     0.335080    Uiso  ? O
   O18        1.0     0.079276     0.213359     0.264684    Uiso  ? O
   O19        1.0     0.910277     0.519821     0.400278    Uiso  ? O
   O20        1.0     0.196231     0.037675     0.442299    Uiso  ? O
   O21        1.0     0.623443     0.171888     0.444294    Uiso  ? O
   O22        1.0     0.377063     0.555416     0.393219    Uiso  ? O
