
##########################################################################
#               Crystallographic Information Format file
#               Produced by PyCifRW module
#
#  This is a CIF file.  CIF has been adopted by the International
#  Union of Crystallography as the standard for data archiving and
#  transmission.
#
#  For information on this file format, follow the CIF links at
#  http://www.iucr.org
##########################################################################

data_0

loop_
  _atom_site_label
  _atom_site_fract_x
  _atom_site_fract_y
  _atom_site_fract_z
  _atom_site_type_symbol
         Sn1       0.4999999999999999  0.36363636363635565           0.27272727272725816          Sn       
         Sn2       1.4647646115293403e-16        0.863636363636363   0.27272727272725816          Sn       
         Sn3       0.4999999999999998  0.863636363636363   0.3636363636363709  Sn       
         Sn4       1.9530194820390796e-16        0.36363636363635565           0.3636363636363709 Sn       
         Sn5       0.4999999999999999  0.36363636363635565           0.454545454545457  Sn       
         Sn6       2.441274352549077e-16         0.863636363636363   0.454545454545457  Sn       
         Sn7       0.4999999999999998  0.863636363636363   0.545454545454543   Sn       
         Sn8       2.9295292230588157e-16        0.36363636363635565           0.545454545454543  Sn       
         Sn9       0.4999999999999999  0.36363636363635565           0.636363636363629  Sn       
         Sn10      3.4177840935685057e-16        0.863636363636363   0.636363636363629  Sn       
         Sn11      0.4999999999999998  0.863636363636363   0.7272727272727151  Sn       
         Sn12      3.9060389640785517e-16        0.36363636363635576           0.7272727272727151 Sn       
         O1        0.49999999999999967           0.05706006363636251           0.27272727272725816          O        
         O2        0.49999999999999983           0.6702126636363637  0.27272727272725816          O        
         O3        1.6536447387234732e-16        0.36363636363635565           0.30789521818181115          O        
         O4        1.2758844843353805e-16        0.36363636363635565           0.23755932727272383          O        
         O5        0.49999999999999983           0.557060063636355   0.3636363636363709 O        
         O6        0.4999999999999996  0.17021266363635634           0.3636363636363709 O        
         O7        2.1418996092331627e-16        0.863636363636363   0.3988043090908972 O        
         O8        1.7641393548452547e-16        0.863636363636363   0.3284684181818179 O        
         O9        0.49999999999999967           0.05706006363636251           0.454545454545457  O        
         O10       0.49999999999999983           0.6702126636363637  0.454545454545457  O        
         O11       2.63015447974321e-16          0.36363636363635565           0.4897133999999833 O        
         O12       2.2523942253549933e-16        0.36363636363635565           0.41937750909090393          O        
         O13       0.49999999999999983           0.557060063636355   0.545454545454543  O        
         O14       0.4999999999999996  0.17021266363635634           0.545454545454543  O        
         O15       3.118409350252899e-16         0.863636363636363   0.580622490909096  O        
         O16       2.740649095864683e-16         0.863636363636363   0.51028659999999   O        
         O17       0.49999999999999967           0.05706006363636251           0.636363636363629  O        
         O18       0.49999999999999983           0.6702126636363637  0.636363636363629  O        
         O19       3.606664220762638e-16         0.36363636363635565           0.6715315818181821 O        
         O20       3.228903966374422e-16         0.36363636363635565           0.6011956909090761 O        
         O21       0.49999999999999983           0.557060063636355   0.7272727272727151 O        
         O22       0.4999999999999996  0.17021266363635634           0.7272727272727151 O        
         O23       4.094919091272327e-16         0.863636363636363   0.7624406727272681 O        
         O24       3.717158836884419e-16         0.863636363636363   0.6921047818181622 O
_cell_angle_alpha                       90.0
_cell_angle_beta                        90.0
_cell_angle_gamma                       90.0
_cell_length_a                          3.24476193
_cell_length_b                          6.8255741825883
_cell_length_c                          37.540658004236
loop_
  _symmetry_equiv_pos_as_xyz
         'x, y, z' 
_symmetry_int_tables_number             1
_symmetry_space_group_name_H-M          'P 1'
