
##########################################################################
#               Crystallographic Information Format file
#               Produced by PyCifRW module
#
#  This is a CIF file.  CIF has been adopted by the International
#  Union of Crystallography as the standard for data archiving and
#  transmission.
#
#  For information on this file format, follow the CIF links at
#  http://www.iucr.org
##########################################################################

data_0

loop_
  _atom_site_label
  _atom_site_fract_x
  _atom_site_fract_y
  _atom_site_fract_z
  _atom_site_type_symbol
         Ag1       0.49999999999999994           0.25      0.3857376169234885  Ag       
         Ag2       0.49999999999999983           0.75      0.3857376169234885  Ag       
         Ag3       1.2640961637347528e-16        0.5       0.3440709502568219  Ag       
         Ag4       0.25      1.1110153138413736e-16        0.30240428359015525           Ag       
         Ag5       9.579344639480105e-17         0.5       0.2607376169234804  Ag       
         Ag6       0.75      1.1110153138413736e-16        0.30240428359015525           Ag       
         Ag7       0.49999999999999994           0.25      0.5524042835901553  Ag       
         Ag8       0.49999999999999983           0.75      0.5524042835901553  Ag       
         Ag9       1.8764195633084005e-16        0.5       0.5107376169234885  Ag       
         Ag10      0.25      1.7233387134151026e-16        0.46907095025682194           Ag       
         Ag11      1.570257863521658e-16         0.5       0.42740428359015525           Ag       
         Ag12      0.75      1.7233387134151026e-16        0.46907095025682194           Ag       
         Ag13      2.4887429628822106e-16        0.5       0.6774042835901553  Ag       
         Ag14      0.25      2.33566211298875e-16          0.6357376169234885  Ag       
         Ag15      2.1825812630953056e-16        0.5       0.5940709502568219  Ag       
         Ag16      0.75      2.33566211298875e-16          0.6357376169234885  Ag       
         P1        0.49999999999999994           0.5       0.30240428359015525           P        
         P2        1.4171770136281971e-16        1.4171770136281971e-16        0.3857376169234885 P        
         P3        0.49999999999999994           0.5       0.46907095025682194           P        
         P4        2.0295004132018445e-16        2.0295004132018448e-16        0.5524042835901553 P        
         P5        0.49999999999999994           0.5       0.6357376169234885  P        
         O1        0.8528652099999928  0.8528652099999929  0.36121515192348735           O        
         O2        0.3528652099999928  0.6471347900000071  0.3269267485901564  O        
         O3        0.6471347900000071  0.6471347900000071  0.27788181859015404           O        
         O4        0.6471347900000071  0.35286520999999293           0.3269267485901564 O        
         O5        0.3528652099999928  0.35286520999999293           0.27788181859015404          O        
         O6        0.14713479000000693           0.8528652099999929  0.41026008192348973          O        
         O7        0.8528652099999929  0.14713479000000707           0.41026008192348973          O        
         O8        0.14713479000000707           0.14713479000000707           0.36121515192348735          O        
         O9        0.8528652099999928  0.8528652099999929  0.527881818590154   O        
         O10       0.3528652099999928  0.6471347900000071  0.49359341525682304           O        
         O11       0.6471347900000071  0.6471347900000071  0.4445484852568207  O        
         O12       0.6471347900000071  0.35286520999999293           0.49359341525682304          O        
         O13       0.3528652099999928  0.35286520999999293           0.4445484852568207 O        
         O14       0.14713479000000693           0.8528652099999929  0.5769267485901564 O        
         O15       0.8528652099999929  0.14713479000000707           0.5769267485901564 O        
         O16       0.14713479000000707           0.14713479000000707           0.527881818590154  O        
         O17       0.3528652099999928  0.6471347900000071  0.6602600819234897  O        
         O18       0.6471347900000071  0.6471347900000071  0.6112151519234874  O        
         O19       0.6471347900000071  0.35286520999999293           0.6602600819234897 O        
         O20       0.3528652099999928  0.35286520999999293           0.6112151519234874 O
_cell_angle_alpha                       90.0
_cell_angle_beta                        90.0
_cell_angle_gamma                       90.0
_cell_length_a                          6.14278235
_cell_length_b                          6.14278235
_cell_length_c                          36.8566941
loop_
  _symmetry_equiv_pos_as_xyz
         'x, y, z' 
_symmetry_int_tables_number             1
_symmetry_space_group_name_H-M          'P 1'
