
#======================================================================
# CRYSTAL DATA
#----------------------------------------------------------------------
data_VESTA_phase_1

_chemical_name_common                  '"La10 Co10 O34"'
_cell_length_a                         5.453690
_cell_length_b                         7.663153
_cell_length_c                         32.588203
_cell_angle_alpha                      90.000000
_cell_angle_beta                       90.000000
_cell_angle_gamma                      90.000000
_cell_volume                           1361.941057
_space_group_name_H-M_alt              'P 1'
_space_group_IT_number                 1

loop_
_space_group_symop_operation_xyz
   'x, y, z'

loop_
   _atom_site_label
   _atom_site_occupancy
   _atom_site_fract_x
   _atom_site_fract_y
   _atom_site_fract_z
   _atom_site_adp_type
   _atom_site_U_iso_or_equiv
   _atom_site_type_symbol
   La1        1.0     0.248038     0.255560     0.040596    Uiso  ? La
   La2        1.0     0.803806     0.755560     0.141536    Uiso  ? La
   La3        1.0     0.830324     0.255560     0.135571    Uiso  ? La
   La4        1.0     0.249729     0.755560     0.050928    Uiso  ? La
   La5        1.0     0.303188     0.255560     0.222056    Uiso  ? La
   La6        1.0     0.758816     0.755560     0.311942    Uiso  ? La
   La7        1.0     0.785334     0.255560     0.305977    Uiso  ? La
   La8        1.0     0.285952     0.755560     0.225458    Uiso  ? La
   La9        1.0     0.339411     0.255560     0.396586    Uiso  ? La
   La10       1.0     0.341102     0.755560     0.406918    Uiso  ? La
   Co1        1.0     0.765325     0.506734     0.053401    Uiso  ? Co
   Co2        1.0     0.765325     0.004386     0.053401    Uiso  ? Co
   Co3        1.0     0.318209     0.007631     0.138471    Uiso  ? Co
   Co4        1.0     0.318209     0.503489     0.138471    Uiso  ? Co
   Co5        1.0     0.794570     0.505560     0.223757    Uiso  ? Co
   Co6        1.0     0.794570     0.005560     0.223757    Uiso  ? Co
   Co7        1.0     0.270931     0.003489     0.309043    Uiso  ? Co
   Co8        1.0     0.270931     0.507631     0.309043    Uiso  ? Co
   Co9        1.0     0.823815     0.504386     0.394112    Uiso  ? Co
   Co10       1.0     0.823815     0.006734     0.394112    Uiso  ? Co
   O1         1.0     0.363980     0.255560     0.149138    Uiso  ? O
   O2         1.0     0.800677     0.755560     0.064787    Uiso  ? O
   O3         1.0     0.759719     0.255560     0.059174    Uiso  ? O
   O4         1.0     0.260346     0.755560     0.129047    Uiso  ? O
   O5         1.0     0.493191     0.995347     0.025212    Uiso  ? O
   O6         1.0     0.106116     0.462130     0.094542    Uiso  ? O
   O7         1.0     0.493191     0.515773     0.025212    Uiso  ? O
   O8         1.0     0.106116     0.048990     0.094542    Uiso  ? O
   O9         1.0     0.606496     0.509098     0.106866    Uiso  ? O
   O10        1.0     0.000004     0.000004     0.017429    Uiso  ? O
   O11        1.0     0.606496     0.002022     0.106866    Uiso  ? O
   O12        1.0     0.000004     0.511116     0.017429    Uiso  ? O
   O13        1.0     0.328794     0.255560     0.318467    Uiso  ? O
   O14        1.0     0.836755     0.755560     0.229363    Uiso  ? O
   O15        1.0     0.752385     0.255560     0.218151    Uiso  ? O
   O16        1.0     0.225161     0.755560     0.298376    Uiso  ? O
   O17        1.0     0.529309     0.960730     0.185899    Uiso  ? O
   O18        1.0     0.059831     0.460730     0.261615    Uiso  ? O
   O19        1.0     0.529309     0.550390     0.185899    Uiso  ? O
   O20        1.0     0.059831     0.050390     0.261615    Uiso  ? O
   O21        1.0     0.543786     0.508476     0.270604    Uiso  ? O
   O22        1.0     0.045354     0.008476     0.176909    Uiso  ? O
   O23        1.0     0.543786     0.002644     0.270604    Uiso  ? O
   O24        1.0     0.045354     0.502644     0.176909    Uiso  ? O
   O25        1.0     0.829422     0.755560     0.388340    Uiso  ? O
   O26        1.0     0.788463     0.255560     0.382726    Uiso  ? O
   O27        1.0     0.483024     0.962130     0.352972    Uiso  ? O
   O28        1.0     0.095949     0.495347     0.422301    Uiso  ? O
   O29        1.0     0.483024     0.548990     0.352972    Uiso  ? O
   O30        1.0     0.095949     0.015773     0.422301    Uiso  ? O
   O31        1.0     0.589136     0.500004     0.430085    Uiso  ? O
   O32        1.0     0.982644     0.009098     0.340647    Uiso  ? O
   O33        1.0     0.589136     0.011116     0.430085    Uiso  ? O
   O34        1.0     0.982644     0.502022     0.340647    Uiso  ? O
