
##########################################################################
#               Crystallographic Information Format file
#               Produced by PyCifRW module
#
#  This is a CIF file.  CIF has been adopted by the International
#  Union of Crystallography as the standard for data archiving and
#  transmission.
#
#  For information on this file format, follow the CIF links at
#  http://www.iucr.org
##########################################################################

data_0

loop_
  _atom_site_label
  _atom_site_fract_x
  _atom_site_fract_y
  _atom_site_fract_z
  _atom_site_type_symbol
         Ag1       0.08333333333334243           0.7083333333333233  0.2887899352049427 Ag       
         Ag2       0.08333333333333144           0.20833333333333132           0.2887899352049427 Ag       
         Ag3       0.5833333333333384  0.20833333333333132           0.2887899352049427 Ag       
         Ag4       0.5833333333333354  0.7083333333333233  0.2887899352049427  Ag       
         Ag5       0.7499999999999998  0.37499999999998984           0.37212326853827843          Ag       
         Ag6       0.7500000000000028  0.874999999999998   0.37212326853827843           Ag       
         Ag7       0.25000000000000977           0.874999999999998   0.37212326853827843          Ag       
         Ag8       0.2500000000000068  0.37499999999998984           0.37212326853827843          Ag       
         Ag9       0.41666666666666624           0.041666666666666255          0.4554566018716142 Ag       
         Ag10      0.4166666666666741  0.5416666666666646  0.4554566018716142  Ag       
         Ag11      0.9166666666666672  0.5416666666666646  0.4554566018716142  Ag       
         Ag12      0.9166666666666592  0.041666666666666255          0.4554566018716142 Ag       
         Ag13      0.08333333333334243           0.7083333333333233  0.5387899352049499 Ag       
         Ag14      0.08333333333333144           0.20833333333333132           0.5387899352049499 Ag       
         Ag15      0.5833333333333384  0.20833333333333132           0.5387899352049499 Ag       
         Ag16      0.5833333333333494  0.7083333333333233  0.5387899352049499  Ag       
         Ag17      0.7499999999999998  0.37499999999998984           0.6221232685382856 Ag       
         Ag18      0.7500000000000028  0.874999999999998   0.6221232685382856  Ag       
         Ag19      0.25000000000000977           0.874999999999998   0.6221232685382856 Ag       
         Ag20      0.2500000000000068  0.37499999999998984           0.6221232685382856 Ag       
         Ag21      0.41666666666666624           0.041666666666666255          0.7054566018715928 Ag       
         Ag22      0.4166666666666741  0.5416666666666646  0.7054566018715928  Ag       
         Ag23      0.9166666666666672  0.5416666666666646  0.7054566018715928  Ag       
         Ag24      0.9166666666666732  0.041666666666666255          0.7054566018715928 Ag       
         O1        0.5833333333333354  0.7083333333333233  0.3512899352049374  O        
         O2        0.2500000000000068  0.37499999999998984           0.3096232685382838 O        
         O3        0.2500000000000068  0.37499999999998984           0.4346232685382731 O        
         O4        0.9166666666666592  0.041666666666666255          0.3929566018716195 O        
         O5        0.9166666666666592  0.041666666666666255          0.5179566018716089 O        
         O6        0.5833333333333354  0.7083333333333233  0.4762899352049553  O        
         O7        0.5833333333333494  0.7083333333333233  0.6012899352049444  O        
         O8        0.2500000000000068  0.37499999999998984           0.5596232685382624 O        
         O9        0.2500000000000068  0.37499999999998984           0.6846232685382803 O        
         O10       0.9166666666666592  0.041666666666666255          0.6429566018715981 O
_cell_angle_alpha                       90.0
_cell_angle_beta                        90.0
_cell_angle_gamma                       60.00000000000052
_cell_length_a                          7.1526837311799
_cell_length_b                          7.152683731179912
_cell_length_c                          35.040850865795
loop_
  _symmetry_equiv_pos_as_xyz
         'x, y, z' 
_symmetry_int_tables_number             1
_symmetry_space_group_name_H-M          'P 1'
