
#======================================================================
# CRYSTAL DATA
#----------------------------------------------------------------------
data_VESTA_phase_1

_chemical_name_common                  'Ag  P  O '
_cell_length_a                         6.097168
_cell_length_b                         8.622699
_cell_length_c                         34.490795
_cell_angle_alpha                      90.000000
_cell_angle_beta                       90.000000
_cell_angle_gamma                      90.000000
_cell_volume                           1813.320682
_space_group_name_H-M_alt              'P 1'
_space_group_IT_number                 1

loop_
_space_group_symop_operation_xyz
   'x, y, z'

loop_
   _atom_site_label
   _atom_site_occupancy
   _atom_site_fract_x
   _atom_site_fract_y
   _atom_site_fract_z
   _atom_site_adp_type
   _atom_site_U_iso_or_equiv
   _atom_site_type_symbol
   Ag1        1.0     0.500000     0.511719     0.367188    Uiso  ? Ag
   Ag2        1.0     0.000000     0.261719     0.367188    Uiso  ? Ag
   Ag3        1.0     0.500000     0.761719     0.304688    Uiso  ? Ag
   Ag4        1.0     0.000000     0.011719     0.304688    Uiso  ? Ag
   Ag5        1.0     0.750000     0.886719     0.398438    Uiso  ? Ag
   Ag6        1.0     0.250000     0.886719     0.398438    Uiso  ? Ag
   Ag7        1.0     0.500000     0.011719     0.492187    Uiso  ? Ag
   Ag8        1.0     0.000000     0.761719     0.492187    Uiso  ? Ag
   Ag9        1.0     0.500000     0.261719     0.429688    Uiso  ? Ag
   Ag10       1.0     0.000000     0.511719     0.429688    Uiso  ? Ag
   Ag11       1.0     0.750000     0.386719     0.523438    Uiso  ? Ag
   Ag12       1.0     0.250000     0.386719     0.523438    Uiso  ? Ag
   Ag13       1.0     0.500000     0.511719     0.617188    Uiso  ? Ag
   Ag14       1.0     0.000000     0.261719     0.617188    Uiso  ? Ag
   Ag15       1.0     0.500000     0.761719     0.554688    Uiso  ? Ag
   Ag16       1.0     0.000000     0.011719     0.554688    Uiso  ? Ag
   Ag17       1.0     0.750000     0.886719     0.648438    Uiso  ? Ag
   Ag18       1.0     0.250000     0.886719     0.648438    Uiso  ? Ag
   Ag19       1.0     0.500000     0.011719     0.742188    Uiso  ? Ag
   Ag20       1.0     0.000000     0.761719     0.742188    Uiso  ? Ag
   Ag21       1.0     0.500000     0.261719     0.679688    Uiso  ? Ag
   Ag22       1.0     0.000000     0.511719     0.679688    Uiso  ? Ag
   P1         1.0     0.500000     0.136719     0.335938    Uiso  ? P
   P2         1.0     0.000000     0.636719     0.335938    Uiso  ? P
   P3         1.0     0.500000     0.636719     0.460938    Uiso  ? P
   P4         1.0     0.000000     0.136719     0.460938    Uiso  ? P
   P5         1.0     0.500000     0.136719     0.585938    Uiso  ? P
   P6         1.0     0.000000     0.636719     0.585938    Uiso  ? P
   P7         1.0     0.500000     0.636719     0.710938    Uiso  ? P
   P8         1.0     0.000000     0.136719     0.710938    Uiso  ? P
   O1         1.0     0.351563     0.285156     0.335938    Uiso  ? O
   O2         1.0     0.351563     0.988281     0.335938    Uiso  ? O
   O3         1.0     0.851563     0.785156     0.335938    Uiso  ? O
   O4         1.0     0.851563     0.488281     0.335938    Uiso  ? O
   O5         1.0     0.148437     0.636719     0.373047    Uiso  ? O
   O6         1.0     0.351563     0.785156     0.460938    Uiso  ? O
   O7         1.0     0.351563     0.488281     0.460938    Uiso  ? O
   O8         1.0     0.648437     0.636719     0.423828    Uiso  ? O
   O9         1.0     0.648437     0.136719     0.373047    Uiso  ? O
   O10        1.0     0.148437     0.136719     0.423828    Uiso  ? O
   O11        1.0     0.851563     0.285156     0.460938    Uiso  ? O
   O12        1.0     0.851563     0.988281     0.460938    Uiso  ? O
   O13        1.0     0.148437     0.136719     0.498047    Uiso  ? O
   O14        1.0     0.351563     0.285156     0.585938    Uiso  ? O
   O15        1.0     0.351563     0.988281     0.585938    Uiso  ? O
   O16        1.0     0.648437     0.136719     0.548828    Uiso  ? O
   O17        1.0     0.648437     0.636719     0.498047    Uiso  ? O
   O18        1.0     0.148437     0.636719     0.548828    Uiso  ? O
   O19        1.0     0.851563     0.785156     0.585938    Uiso  ? O
   O20        1.0     0.851563     0.488281     0.585938    Uiso  ? O
   O21        1.0     0.148437     0.636719     0.623047    Uiso  ? O
   O22        1.0     0.351563     0.785156     0.710938    Uiso  ? O
   O23        1.0     0.351563     0.488281     0.710938    Uiso  ? O
   O24        1.0     0.648437     0.636719     0.673828    Uiso  ? O
   O25        1.0     0.648437     0.136719     0.623047    Uiso  ? O
   O26        1.0     0.148437     0.136719     0.673828    Uiso  ? O
   O27        1.0     0.851563     0.285156     0.710938    Uiso  ? O
   O28        1.0     0.851563     0.988281     0.710938    Uiso  ? O
